[TITLE]
Test Model for GoldSim-SWMM Bridge

[OPTIONS]
FLOW_UNITS CFS
INFILTRATION HORTON
FLOW_ROUTING KINWAVE
START_DATE 01/01/2020
START_TIME 00:00:00
END_DATE 01/01/2020
END_TIME 01:00:00
REPORT_STEP 00:15:00
WET_STEP 00:05:00
DRY_STEP 01:00:00
ROUTING_STEP 60
ALLOW_PONDING NO
INERTIAL_DAMPING PARTIAL
VARIABLE_STEP 0.75
LENGTHENING_STEP 0
MIN_SURFAREA 0
NORMAL_FLOW_LIMITED BOTH
SKIP_STEADY_STATE NO
FORCE_MAIN_EQUATION H-W
LINK_OFFSETS DEPTH
MIN_SLOPE 0

[JUNCTIONS]
;;Name Elevation MaxDepth InitDepth SurDepth Aponded
J1 0 10 0 0 0

[OUTFALLS]
;;Name Elevation Type Stage Data Gated Route To
OUT1 0 FREE NO

[CONDUITS]
;;Name From Node To Node Length Roughness InOffset OutOffset InitFlow MaxFlow
C1 J1 OUT1 400 0.01 0 0 0 0

[XSECTIONS]
;;Link Shape Geom1 Geom2 Geom3 Geom4 Barrels
C1 CIRCULAR 1 0 0 0 1

[SUBCATCHMENTS]
;;Name Rain Gage Outlet Area %Imperv Width %Slope CurbLen SnowPack
S1 RG1 J1 10 50 500 0.5 0
S2 RG1 J1 15 60 600 0.6 0
S3 RG1 J1 8 40 400 0.4 0

[SUBAREAS]
;;Subcatchment N-Imperv N-Perv S-Imperv S-Perv PctZero RouteTo PctRouted
S1 0.01 0.1 0.05 0.05 25 OUTLET
S2 0.01 0.1 0.05 0.05 25 OUTLET
S3 0.01 0.1 0.05 0.05 25 OUTLET

[INFILTRATION]
;;Subcatchment MaxRate MinRate Decay DryTime MaxInfil
S1 3.0 0.5 4 7 0
S2 3.0 0.5 4 7 0
S3 3.0 0.5 4 7 0

[RAINGAGES]
;;Name Format Interval SCF Source
RG1 INTENSITY 0:01 1.0 TIMESERIES TS1

[TIMESERIES]
;;Name Date Time Value
TS1 0:00 0.0
TS1 0:10 0.5
TS1 1:00 0.0

[REPORT]
INPUT NO
CONTROLS NO
SUBCATCHMENTS ALL
NODES ALL
LINKS ALL
