[TITLE]
Test Model for Pump Controls - GoldSim-SWMM Bridge

[OPTIONS]
FLOW_UNITS CFS
INFILTRATION HORTON
FLOW_ROUTING DYNWAVE
START_DATE 01/01/2020
START_TIME 00:00:00
END_DATE 01/01/2020
END_TIME 02:00:00
REPORT_STEP 00:15:00
WET_STEP 00:05:00
DRY_STEP 01:00:00
ROUTING_STEP 60
ALLOW_PONDING NO
INERTIAL_DAMPING PARTIAL
VARIABLE_STEP 0.75
LENGTHENING_STEP 0
MIN_SURFAREA 0
NORMAL_FLOW_LIMITED BOTH
SKIP_STEADY_STATE NO
FORCE_MAIN_EQUATION H-W
LINK_OFFSETS DEPTH
MIN_SLOPE 0

[JUNCTIONS]
;;Name Elevation MaxDepth InitDepth SurDepth Aponded
J1 0 10 0 0 0
J2 5 10 0 0 0

[STORAGE]
;;Name Elevation MaxDepth InitDepth Shape Curve_Name/Params Ponded Evap
WET_WELL 0 15 5 FUNCTIONAL 1000 0 0 0 0

[OUTFALLS]
;;Name Elevation Type Stage Data Gated Route To
OUT1 0 FREE NO

[CONDUITS]
;;Name From Node To Node Length Roughness InOffset OutOffset InitFlow MaxFlow
C1 J1 WET_WELL 400 0.01 0 0 0 0
C2 J2 OUT1 400 0.01 0 0 0 0

[PUMPS]
;;Name From Node To Node Pcurve Status Startup Shutoff
P1 WET_WELL J2 DUMMY ON 0 0
P2 WET_WELL J2 PUMP_CURVE ON 2 1

[CURVES]
;;Name Type X-Value Y-Value
PUMP_CURVE Pump1 0 10
PUMP_CURVE Pump1 5 20
PUMP_CURVE Pump1 10 25
DUMMY Pump1 0 10
DUMMY Pump1 1 10

[XSECTIONS]
;;Link Shape Geom1 Geom2 Geom3 Geom4 Barrels
C1 CIRCULAR 1 0 0 0 1
C2 CIRCULAR 1.5 0 0 0 1

[REPORT]
INPUT NO
CONTROLS NO
SUBCATCHMENTS ALL
NODES ALL
LINKS ALL

